opendss_networks/LV15_137bus/Loads.dss
new load.Ld13_LOAD_A phases=1 bus1=B1472.1.4 kv=0.249992666559  vminpu=0.1 vmaxpu=2
new load.Ld406_LOAD_B phases=1 bus1=B1291.2.4 kv=0.249992666559  vminpu=0.1 vmaxpu=2
new load.Ld838_LOAD_C phases=1 bus1=B2721.3.4 kv=0.249992666559  vminpu=0.1 vmaxpu=2
new load.Ld1049_LOAD_A phases=1 bus1=B1345.1.4 kv=0.249992666559  vminpu=0.1 vmaxpu=2
new load.Ld1102_LOAD_B phases=1 bus1=B1677.2.4 kv=0.249992666559  vminpu=0.1 vmaxpu=2
new load.Ld1103_LOAD_C phases=1 bus1=B2569.3.4 kv=0.249992666559  vminpu=0.1 vmaxpu=2
new load.Ld1195_LOAD_A phases=1 bus1=B1836.1.4 kv=0.249992666559  vminpu=0.1 vmaxpu=2
new load.Ld1213_LOAD_B phases=1 bus1=B2478.2.4 kv=0.249992666559  vminpu=0.1 vmaxpu=2
new load.Ld1335_LOAD_C phases=1 bus1=B488.3.4 kv=0.249992666559  vminpu=0.1 vmaxpu=2
new load.Ld1411_LOAD_A phases=1 bus1=B1371.1.4 kv=0.249992666559  vminpu=0.1 vmaxpu=2
new load.Ld1583_LOAD_B phases=1 bus1=B458.2.4 kv=0.249992666559  vminpu=0.1 vmaxpu=2
new load.Ld1623_LOAD_C phases=1 bus1=B663.3.4 kv=0.249992666559  vminpu=0.1 vmaxpu=2
new load.Ld1720_LOAD_A phases=1 bus1=B2760.1.4 kv=0.249992666559  vminpu=0.1 vmaxpu=2
new load.Ld1961_LOAD_B phases=1 bus1=B2311.2.4 kv=0.249992666559  vminpu=0.1 vmaxpu=2
new load.Ld1983_LOAD_C phases=1 bus1=B1675.3.4 kv=0.249992666559  vminpu=0.1 vmaxpu=2
new load.Ld2113_LOAD_A phases=1 bus1=B3223.1.4 kv=0.249992666559  vminpu=0.1 vmaxpu=2
new load.Ld2118_LOAD_B phases=1 bus1=B601.2.4 kv=0.249992666559  vminpu=0.1 vmaxpu=2
new load.Ld2292_LOAD_C phases=1 bus1=B1206.3.4 kv=0.249992666559  vminpu=0.1 vmaxpu=2
new load.Ld2459_LOAD_A phases=1 bus1=B2636.1.4 kv=0.249992666559  vminpu=0.1 vmaxpu=2
new load.Ld2553_LOAD_B phases=1 bus1=B654.2.4 kv=0.249992666559  vminpu=0.1 vmaxpu=2
new load.Ld2979_LOAD_C phases=1 bus1=B1146.3.4 kv=0.249992666559  vminpu=0.1 vmaxpu=2
new load.Ld3008_LOAD_A phases=1 bus1=B2924.1.4 kv=0.249992666559  vminpu=0.1 vmaxpu=2
new load.Ld3072_LOAD_B phases=1 bus1=B3189.2.4 kv=0.249992666559  vminpu=0.1 vmaxpu=2
new load.Ld3113_LOAD_C phases=1 bus1=B3166.3.4 kv=0.249992666559  vminpu=0.1 vmaxpu=2
new load.Ld3116_LOAD_A phases=1 bus1=B1066.1.4 kv=0.249992666559  vminpu=0.1 vmaxpu=2
new load.Ld3275_LOAD_B phases=1 bus1=B2567.2.4 kv=0.249992666559  vminpu=0.1 vmaxpu=2
new load.Ld3299_LOAD_C phases=1 bus1=B109.3.4 kv=0.249992666559  vminpu=0.1 vmaxpu=2
new load.Ld3385_LOAD_A phases=1 bus1=B949.1.4 kv=0.249992666559  vminpu=0.1 vmaxpu=2
new load.Ld3396_LOAD_B phases=1 bus1=B980.2.4 kv=0.249992666559  vminpu=0.1 vmaxpu=2
new load.Ld3485_LOAD_C phases=1 bus1=B2357.3.4 kv=0.249992666559  vminpu=0.1 vmaxpu=2
new load.Ld3523_LOAD_A phases=1 bus1=B2509.1.4 kv=0.249992666559  vminpu=0.1 vmaxpu=2
new load.Ld3657_LOAD_B phases=1 bus1=B1170.2.4 kv=0.249992666559  vminpu=0.1 vmaxpu=2
new load.Ld3741_LOAD_C phases=1 bus1=B2876.3.4 kv=0.249992666559  vminpu=0.1 vmaxpu=2
new load.Ld3744_LOAD_A phases=1 bus1=B3091.1.4 kv=0.249992666559  vminpu=0.1 vmaxpu=2
new load.Ld3758_LOAD_B phases=1 bus1=B384.2.4 kv=0.249992666559  vminpu=0.1 vmaxpu=2
new load.Ld3915_LOAD_C phases=1 bus1=B3033.3.4 kv=0.249992666559  vminpu=0.1 vmaxpu=2
new load.Ld3981_LOAD_A phases=1 bus1=B2648.1.4 kv=0.249992666559  vminpu=0.1 vmaxpu=2
new load.Ld4166_LOAD_B phases=1 bus1=B1897.2.4 kv=0.249992666559  vminpu=0.1 vmaxpu=2
new load.Ld4184_LOAD_C phases=1 bus1=B1596.3.4 kv=0.249992666559  vminpu=0.1 vmaxpu=2
new load.Ld4186_LOAD_A phases=1 bus1=B1514.1.4 kv=0.249992666559  vminpu=0.1 vmaxpu=2
new load.Ld4254_LOAD_B phases=1 bus1=B1381.2.4 kv=0.249992666559  vminpu=0.1 vmaxpu=2
new load.Ld4285_LOAD_C phases=1 bus1=B2466.3.4 kv=0.249992666559  vminpu=0.1 vmaxpu=2
new load.Ld4336_LOAD_A phases=1 bus1=B2378.1.4 kv=0.249992666559  vminpu=0.1 vmaxpu=2
new load.Ld4381_LOAD_B phases=1 bus1=B66.2.4 kv=0.249992666559  vminpu=0.1 vmaxpu=2
new load.Ld4583_LOAD_C phases=1 bus1=B1451.3.4 kv=0.249992666559  vminpu=0.1 vmaxpu=2
new load.Ld4618_LOAD_A phases=1 bus1=B2532.1.4 kv=0.249992666559  vminpu=0.1 vmaxpu=2
